
Spectre (R) Circuit Simulator
Version 18.1.0.394.isr8 64bit -- 11 Jun 2019
Copyright (C) 1989-2019 Cadence Design Systems, Inc. All rights reserved worldwide. Cadence and Spectre are registered trademarks of Cadence Design Systems, Inc. All others are the property of their respective holders.

Includes RSA BSAFE(R) Cryptographic or Security Protocol Software from RSA Security, Inc.

User: r0763954   Host: vierre64-tmp3.esat.kuleuven.be   HostID: 570AAE14   PID: 14411
Memory  available: 359.5550 MB  physical: 41.6806 GB
Linux   : CentOS Linux release 7.9.2009 (Core)
CPU Type: Intel Xeon Processor (Skylake)
All processors running at 2194.8 MHz
        Socket: Processors
        0:       0,  1
        1:       2,  3
        2:       4,  5
        3:       6,  7
        4:       8,  9
        5:      10, 11
        6:      12, 13
        7:      14, 15
        8:      16, 17
        
System load averages (1min, 5min, 15min) : 6.6 %, 6.3 %, 7.4 %


Simulating `./xcelium.d/AMSD/ams_spice_in/.amsspice_normal.ckt' on vierre64-tmp3.esat.kuleuven.be at 9:52:26 PM, Mon Mar 15, 2021 (process id: 14411).
Current working directory: /users/students/r0763954/Documents/EAGLE2/Simvision/EAGLE2_verilog_v8
Environment variable:
    SPECTRE_DEFAULTS=
Command line:
    amsprimtool ./xcelium.d/AMSD/ams_spice_in/.amsspice_normal.ckt  \
        -noraw -va,amsspice_normal -ahdllibdir  \
        xcelium.d/AMSD/ams_spice_in/ahdlSimDB =log  \
        ./xcelium.d/AMSD/ams_spice_in/.amsspice_normal.ckt.log -token  \
        0001AF26C83A239465DFBB2CC00A229E73C4B63DFD3B60CB2080FE71B870359768D3A13CC50411B6749FEA2FE10B0F887DC39431F37A3ED44FD9B63EAA3E399863C0B43FE90F319762DDE37CF76764C33085A92DB80F60FB2390A83DEEB8537F10B0AC32AA3865CF2389BF2AAD6166CF62D5FF74C04850FB2A89A83DED3C50FB10B0A83DED3C50FB10B0C872243499F370FF00004237

Loading /esat/micas-data/software/Cadence/xcelium_19.03/tools.lnx86/cmi/lib/64bit/5.0/libinfineon_sh.so ...
Loading /esat/micas-data/software/Cadence/xcelium_19.03/tools.lnx86/cmi/lib/64bit/5.0/libphilips_o_sh.so ...
Loading /esat/micas-data/software/Cadence/xcelium_19.03/tools.lnx86/cmi/lib/64bit/5.0/libphilips_sh.so ...
Loading /esat/micas-data/software/Cadence/xcelium_19.03/tools.lnx86/cmi/lib/64bit/5.0/libsparam_sh.so ...
Loading /esat/micas-data/software/Cadence/xcelium_19.03/tools.lnx86/cmi/lib/64bit/5.0/libstmodels_sh.so ...
Reading file:  /users/students/r0763954/Documents/EAGLE2/Simvision/EAGLE2_verilog_v8/xcelium.d/AMSD/ams_spice_in/.amsspice_normal.ckt
Reading file:  /esat/micas-data/software/Cadence/xcelium_19.03/tools.lnx86/spectre/etc/configs/mapsubckt.cfg
Reading file:  /esat/micas-data/software/Cadence/xcelium_19.03/tools.lnx86/spectre/etc/configs/spectre.cfg
Reading file:  /users/students/r0763954/Documents/EAGLE2/Simvision/EAGLE2_verilog_v8/amsSim.scs
Reading file:  /users/students/r0763954/Documents/EAGLE2/Simvision/Global_T2_verilog_v8/ANALOG_NETWORK.spi
Reading file:  /users/students/r0763954/Documents/EAGLE2/Simvision/Global_T2_verilog_v8/DI_10A01.spi
Reading file:  /users/students/r0763954/Documents/EAGLE2/Simvision/Global_T2_verilog_v8/LM7812.spi
Reading file:  /users/students/r0763954/Documents/EAGLE2/Simvision/Global_T2_verilog_v8/Ideal_adc.spi
Reading file:  /users/students/r0763954/Documents/EAGLE2/Simvision/Global_T2_verilog_v8/LM7805.spi
Reading file:  /users/students/r0763954/Documents/EAGLE2/Simvision/Global_T2_verilog_v8/DI_BAV5004LP.spi
Reading file:  /users/students/r0763954/Documents/EAGLE2/Simvision/Global_T2_verilog_v8/OPA2344.spi
Reading file:  /users/students/r0763954/Documents/EAGLE2/Simvision/Global_T2_verilog_v8/IR2110.spi
Reading file:  /users/students/r0763954/Documents/EAGLE2/Simvision/Global_T2_verilog_v8/irfs_sl7440pbf.spi
Reading file:  /users/students/r0763954/Documents/EAGLE2/Simvision/Global_T2_verilog_v8/TLV2372.spi
Reading file:  /users/students/r0763954/Documents/EAGLE2/Simvision/Global_T2_verilog_v8/ST_BAT48.spi
Reading file:  /users/students/r0763954/Documents/EAGLE2/Simvision/Global_T2_verilog_v8/LMV7219.spi
Time for NDB Parsing: CPU = 130.452 ms, elapsed = 191.135 ms.
Time accumulated: CPU = 190.181 ms, elapsed = 191.143 ms.
Peak resident memory used = 51 Mbytes.

